Circuit: * C:\Users\youss\Documents\Projects\DC-DC Validation\BuckTest.asc

Fatal Error: U1:x8:x1:isink: requires a minimum of 5 parameters.  Only 4 specified.

