Circuit: * C:\Users\youss\Documents\Projects\DC-DC Validation\Draft4.asc

.OP point found by inspection.

Date: Wed May  6 17:27:52 2026
Total elapsed time: 0.090 seconds.

tnom = 27
temp = 27
method = modified trap
totiter = 2102
traniter = 2102
tranpoints = 1052
accept = 1052
rejected = 0
matrix size = 3
fillins = 0
solver = Normal
Avg thread counts: 2.9/4.8/4.8/2.9
Matrix Compiler1:       5 opcodes  0.1/[0.0]/0.1
Matrix Compiler2: 163 bytes object code size  0.1/0.1/[0.0]

